[General]
network = Network
sim-time-limit = 200s

Network.nodeTx.gen.generationInterval = exponential(0.15)  # packet generation interval
Network.nodeTx.gen.packetByteSize = 12500                 # maximum broadcast package size

Network.nodeTx.TrTx.bufferSize = 200000                   # maximum number of packets in the transmitter queue
Network.nodeTx.TrTx.serviceTime = exponential(0.1)        # transmission time
Network.nodeRx.TrRx.bufferSize = 200                      # maximum number of packets in the receiver queue
Network.nodeRx.TrRx.serviceTime = exponential(0.1)        # transmission time

Network.queue_1.bufferSize = 200                          # maximum number of packets in the network queue
Network.queue_1.serviceTime = exponential(0.1)        # transmission time
Network.queue_2.bufferSize = 200                          # maximum number of packets in the network queue
Network.queue_2.serviceTime = exponential(0.1)        # transmission time